AWS_ACCOUNT = 832257724409
TUXPAS_USER_ROLE=arn:aws:iam::832257724409:role/aws-reserved/sso.amazonaws.com/us-east-2/AWSReservedSSO_DevAnalitica_d84d04005ebf8896 
SALESFORCE_S3_PREFIX = athenea/salesforce/public
SALESFORCE_CONECTION_NAME = aje-salesforce-dev
ENVIRONMENT = dev
EXPORT_DATA_DYNAMODBTABLE=configuration-dynamo-table
CREDENTIALS_DYNAMODBTABLE=credentials-dynamo-table
REPLICATION_INSTANCE_CLASS=dms.r6i.large
REPLICATION_INSTANCE_ENGINE_VERSION=3.4.6
REPLICATION_INSTANCE_IDENTIFIER=etl-replication-instance
TABLES_PER_TASK=10
WORKERS_PER_TASK=5
MAX_TABLES_AT_A_TIME_GLUE=5
PROCESS_ID_TO_LOAD=10,20,100,200,300
COUNTRIES_TO_LOAD=PE
PROJECT_NAME=athenea
ORACLE_REPLICATION_SUBNET_IDENTIFIER=test-subnetgroup
ORACLE_VPC_SECURITY_GROUP_IDENTIFIER=sg-0d6185d8f6fcdd237
MYSQL_REPLICATION_SUBNET_IDENTIFIER=test-subnetgroup
MYSQL_VPC_SECURITY_GROUP_IDENTIFIER=sg-0d6185d8f6fcdd237
MSSQL_REPLICATION_SUBNET_IDENTIFIER=test-subnetgroup
MSSQL_VPC_SECURITY_GROUP_IDENTIFIER=sg-0d6185d8f6fcdd237
MAILS_TO_ADVISE=favio.cuya@tuxpas.com,patricio.avila@tuxpas.com
DELTA_LOADS_SECURITY_GROUP=sg-0d6185d8f6fcdd237
DELTA_LOADS_SUBNET_ID=subnet-02bc2c444d313fd28
DELTA_LOADS_AVAILABILITY_ZONE=us-east-2a
DELTA_LOADS_VPC_ID=vpc-031ecad192b797a50
DOM_STEP_NAME=arn:aws:states:us-east-2:832257724409:stateMachine:aje-dev-datalake-analitica-sm
MAIL_SALESFORCE_LOG=favio.cuya@tuxpas.com,patricio.avila@tuxpas.com